data_NBT_Jones+Thomas_Pseudocubic
_chemical_formula_sum 'Na Bi Ti2 O6'
_publ_section_title

;
Test cif by R Beanland 26 June 2014
;

loop_
_publ_author_name
'Beanland R.'
_cell_length_a 7.77738
_cell_length_b 7.77738
_cell_length_c 7.77738
_cell_angle_alpha 89.86
_cell_angle_beta 89.86
_cell_angle_gamma 89.86
_symmetry_space_group_name_H-M 'p 1'
loop_
_symmetry_equiv_pos_site_id
_symmetry_equiv_pos_as_xyz
1 x,y,z
loop_
_atom_site_label
_atom_site_type_symbol
_atom_site_symmetry_multiplicity
_atom_site_Wyckoff_symbol
_atom_site_fract_x
_atom_site_fract_y
_atom_site_fract_z
_atom_site_occupancy
_atom_site_B_iso_or_equiv
Na Na 1 a 0.0000 0.0000 0.0000 0.5 0.8 
Na Na 1 a 0.5000 0.0000 0.0000 0.5 0.8 
Na Na 1 a 0.0000 0.5000 0.0000 0.5 0.8 
Na Na 1 a 0.0000 0.0000 0.5000 0.5 0.8 
Na Na 1 a 0.5000 0.5000 0.0000 0.5 0.8 
Na Na 1 a 0.0000 0.5000 0.5000 0.5 0.8 
Na Na 1 a 0.5000 0.0000 0.5000 0.5 0.8 
Na Na 1 a 0.5000 0.5000 0.5000 0.5 0.8 
Bi Bi 1 a 0.0000 0.0000 0.0000 0.5 2.61 
Bi Bi 1 a 0.5000 0.0000 0.0000 0.5 2.61 
Bi Bi 1 a 0.0000 0.5000 0.0000 0.5 2.61 
Bi Bi 1 a 0.0000 0.0000 0.5000 0.5 2.61 
Bi Bi 1 a 0.5000 0.5000 0.0000 0.5 2.61 
Bi Bi 1 a 0.0000 0.5000 0.5000 0.5 2.61 
Bi Bi 1 a 0.5000 0.0000 0.5000 0.5 2.61 
Bi Bi 1 a 0.5000 0.5000 0.5000 0.5 2.61 
Ti Ti 1 a 0.2436 0.2436 0.2436 1.0 1.08 
Ti Ti 1 a 0.7436 0.2436 0.2436 1.0 1.08 
Ti Ti 1 a 0.2436 0.7436 0.2436 1.0 1.08 
Ti Ti 1 a 0.2436 0.2436 0.7436 1.0 1.08 
Ti Ti 1 a 0.7436 0.7436 0.2436 1.0 1.08 
Ti Ti 1 a 0.2436 0.7436 0.7436 1.0 1.08 
Ti Ti 1 a 0.7436 0.2436 0.7436 1.0 1.08 
Ti Ti 1 a 0.7436 0.7436 0.7436 1.0 1.08 
O O 1 a 0.2155 0.4886 0.7575 1.0 0.99 
O O 1 a 0.2155 0.9886 0.2575 1.0 0.99 
O O 1 a 0.2155 0.2575 0.4886 1.0 0.99 
O O 1 a 0.2155 0.7575 0.9886 1.0 0.99 
O O 1 a 0.2575 0.2155 0.9886 1.0 0.99 
O O 1 a 0.2575 0.4886 0.2155 1.0 0.99 
O O 1 a 0.2575 0.7155 0.4886 1.0 0.99 
O O 1 a 0.2575 0.9886 0.7155 1.0 0.99 
O O 1 a 0.4886 0.2155 0.2575 1.0 0.99 
O O 1 a 0.4886 0.2575 0.7155 1.0 0.99 
O O 1 a 0.4886 0.7155 0.7575 1.0 0.99 
O O 1 a 0.4886 0.7575 0.2155 1.0 0.99 
O O 1 a 0.7155 0.2575 0.9886 1.0 0.99 
O O 1 a 0.7155 0.7575 0.4886 1.0 0.99 
O O 1 a 0.7155 0.4886 0.2575 1.0 0.99 
O O 1 a 0.7155 0.9886 0.7575 1.0 0.99 
O O 1 a 0.7575 0.2155 0.4886 1.0 0.99 
O O 1 a 0.7575 0.4886 0.7155 1.0 0.99 
O O 1 a 0.7575 0.7155 0.9886 1.0 0.99 
O O 1 a 0.7575 0.9886 0.2155 1.0 0.99 
O O 1 a 0.9886 0.2155 0.7575 1.0 0.99 
O O 1 a 0.9886 0.2575 0.2155 1.0 0.99 
O O 1 a 0.9886 0.7155 0.2575 1.0 0.99 
O O 1 a 0.9886 0.7575 0.7155 1.0 0.99 
#End of NBT_Jones+Thomas_Pseudocubic
